Version 4
SHEET 1 1220 916
WIRE 608 -176 608 -256
WIRE 528 -128 528 -256
WIRE 464 -48 464 -128
WIRE 528 -48 528 -128
WIRE 464 32 464 -48
WIRE 528 32 528 -48
WIRE 464 112 464 32
WIRE 528 112 528 32
WIRE 464 208 464 112
WIRE 288 240 224 240
WIRE 288 256 288 240
WIRE 416 288 368 288
WIRE 224 336 224 240
WIRE 192 352 112 352
WIRE 368 368 368 288
WIRE 368 368 256 368
WIRE 464 368 464 304
WIRE 464 368 416 368
WIRE 192 384 160 384
WIRE 160 432 160 384
WIRE 416 432 416 368
WIRE 416 432 160 432
WIRE 464 432 464 368
WIRE 32 448 32 352
WIRE 224 448 224 400
WIRE 224 592 224 528
FLAG 32 448 0
FLAG 224 592 0
FLAG 464 512 0
FLAG 288 256 0
FLAG 608 -176 0
SYMBOL OpAmps\\LT1001 224 432 M180
SYMATTR InstName U1
SYMBOL voltage 128 352 R90
WINDOW 0 -32 56 VBottom 2
WINDOW 3 45 191 VTop 2
WINDOW 123 0 0 Left 0
WINDOW 39 0 0 Left 0
SYMATTR InstName V2
SYMATTR Value PULSE(0 5 0 1p 1p 10m 20m)
SYMBOL voltage 224 432 R0
WINDOW 0 32 56 VTop 2
WINDOW 3 -32 56 VBottom 2
WINDOW 123 0 0 Left 0
WINDOW 39 0 0 Left 0
SYMATTR InstName V3
SYMATTR Value 9
SYMBOL res 448 416 R0
SYMATTR InstName R1
SYMATTR Value 40
SYMBOL voltage 512 -256 R270
WINDOW 0 32 56 VTop 2
WINDOW 3 -32 56 VBottom 2
WINDOW 123 0 0 Left 0
WINDOW 39 0 0 Left 0
SYMATTR InstName V1
SYMATTR Value 28
SYMBOL nmos 416 208 R0
SYMATTR InstName M1
SYMATTR Value 2N7002
SYMBOL diode 528 -144 R90
WINDOW 0 0 32 VBottom 2
WINDOW 3 32 32 VTop 2
SYMATTR InstName D1
SYMBOL diode 528 -64 R90
WINDOW 0 0 32 VBottom 2
WINDOW 3 32 32 VTop 2
SYMATTR InstName D2
SYMBOL diode 528 16 R90
WINDOW 0 0 32 VBottom 2
WINDOW 3 32 32 VTop 2
SYMATTR InstName D3
SYMBOL diode 528 96 R90
WINDOW 0 0 32 VBottom 2
WINDOW 3 32 32 VTop 2
SYMATTR InstName D4
TEXT 760 408 Left 2 !.tran 0 1 0
TEXT 760 344 Left 2 !.model red D(IS=4e-18 RS=13 N=2)
TEXT 760 376 Left 2 !.model blue D(IS=1e-17 RS=10 N=3)
